Version 4
SHEET 1 3996 936
WIRE 704 -288 -528 -288
WIRE 1712 -288 704 -288
WIRE 3040 -288 1712 -288
WIRE 80 -64 -144 -64
WIRE 128 -64 80 -64
WIRE 256 -64 208 -64
WIRE 320 -64 256 -64
WIRE 464 -64 400 -64
WIRE -144 80 -144 -64
WIRE -336 112 -336 -32
WIRE 256 112 256 -64
WIRE 256 112 224 112
WIRE 2384 112 2112 112
WIRE 2704 112 2448 112
WIRE 80 128 80 -64
WIRE 160 128 80 128
WIRE 1136 128 832 128
WIRE 256 144 224 144
WIRE 48 208 -96 208
WIRE 992 208 896 208
WIRE 1168 208 1168 112
WIRE 1168 208 1072 208
WIRE 1216 208 1168 208
WIRE 1328 208 1296 208
WIRE 1360 208 1328 208
WIRE 1488 208 1440 208
WIRE 1952 288 1872 288
WIRE 2112 288 2112 112
WIRE 2112 288 2032 288
WIRE 2192 288 2112 288
WIRE 2352 288 2272 288
WIRE 2576 288 2352 288
WIRE -96 304 -96 208
WIRE -48 304 -96 304
WIRE 2704 304 2704 112
WIRE 2704 304 2640 304
WIRE 2784 304 2704 304
WIRE 48 320 48 208
WIRE 48 320 16 320
WIRE 96 320 48 320
WIRE 256 320 256 144
WIRE 256 320 176 320
WIRE 320 320 256 320
WIRE 464 320 400 320
WIRE 1328 320 1328 208
WIRE 1376 320 1328 320
WIRE 2576 320 2512 320
WIRE -144 336 -144 160
WIRE -48 336 -144 336
WIRE 1488 336 1488 208
WIRE 1488 336 1440 336
WIRE 1536 336 1488 336
WIRE 896 352 896 208
WIRE 992 352 896 352
WIRE 1216 352 1072 352
WIRE 1376 352 1296 352
WIRE 1872 384 1872 288
WIRE -336 400 -336 192
WIRE -144 400 -144 336
WIRE 2352 400 2352 288
WIRE 896 416 896 352
WIRE 2512 464 2512 320
WIRE 2560 464 2512 464
WIRE 2704 464 2704 304
WIRE 2704 464 2640 464
WIRE 272 512 112 512
WIRE 2512 528 2512 464
WIRE 1872 544 1872 464
WIRE 2352 544 2352 464
WIRE 896 560 896 496
WIRE 992 560 896 560
WIRE 1168 560 1072 560
WIRE 112 608 112 512
WIRE 160 608 112 608
WIRE 272 624 272 512
WIRE 272 624 224 624
WIRE 336 624 272 624
WIRE -112 640 -192 640
WIRE 48 640 -32 640
WIRE 160 640 48 640
WIRE 832 656 832 128
WIRE 1136 656 1136 128
WIRE 1136 656 832 656
WIRE 2512 656 2512 608
WIRE 48 688 48 640
WIRE 48 688 16 688
WIRE 48 720 48 688
WIRE 16 752 16 688
WIRE 48 832 48 784
WIRE -528 928 -528 -288
WIRE 704 928 704 -288
WIRE 704 928 -528 928
WIRE 1712 928 1712 -288
WIRE 1712 928 704 928
WIRE 3040 928 3040 -288
WIRE 3040 928 1712 928
FLAG -336 400 0
FLAG -336 -32 5V
IOPIN -336 -32 Out
FLAG 192 96 5V
IOPIN 192 96 In
FLAG 192 160 0
FLAG 1408 304 5V
IOPIN 1408 304 In
FLAG 1408 368 0
FLAG 464 320 V_ref
IOPIN 464 320 In
FLAG -192 640 5V
IOPIN -192 640 In
FLAG 48 832 0
FLAG 1168 560 0
FLAG -16 288 5V
IOPIN -16 288 In
FLAG -16 352 0
FLAG -144 400 I_out
IOPIN -144 400 In
FLAG 1168 112 I_out
IOPIN 1168 112 In
FLAG 1536 336 V_out
IOPIN 1536 336 Out
FLAG 2608 336 5V
IOPIN 2608 336 In
FLAG 2608 272 0
FLAG 2512 656 0
FLAG 2352 544 0
FLAG 1872 544 0
FLAG 2784 304 V_out2
IOPIN 2784 304 Out
FLAG 192 592 5V
IOPIN 192 592 In
FLAG 192 656 0
FLAG 336 624 V_ref
IOPIN 336 624 Out
FLAG 464 -64 0
SYMBOL voltage -336 96 R0
WINDOW 123 0 0 Left 0
WINDOW 39 0 0 Left 0
SYMATTR InstName V1
SYMATTR Value 5
SYMBOL res 416 -80 R90
WINDOW 0 0 56 VBottom 2
WINDOW 3 32 56 VTop 2
SYMATTR InstName R1
SYMATTR Value 25k
SYMBOL res 224 -80 R90
WINDOW 0 0 56 VBottom 2
WINDOW 3 32 56 VTop 2
SYMATTR InstName R2
SYMATTR Value 25k
SYMBOL res -160 64 R0
SYMATTR InstName Rref
SYMATTR Value 2.5k
SYMBOL res 416 304 R90
WINDOW 0 0 56 VBottom 2
WINDOW 3 32 56 VTop 2
SYMATTR InstName R4
SYMATTR Value 25k
SYMBOL res 192 304 R90
WINDOW 0 0 56 VBottom 2
WINDOW 3 32 56 VTop 2
SYMATTR InstName R3
SYMATTR Value 25k
SYMBOL res -16 624 R90
WINDOW 0 0 56 VBottom 2
WINDOW 3 32 56 VTop 2
SYMATTR InstName R5
SYMATTR Value 500
SYMBOL OpAmps\\UniversalOpAmp 192 128 M0
SYMATTR InstName U4
SYMBOL OpAmps\\UniversalOpAmp 1408 336 R0
SYMATTR InstName U5
SYMBOL AutoGenerated\\TL431 32 720 R0
SYMATTR InstName U1
SYMBOL res 880 400 R0
WINDOW 3 58 329 Left 2
SYMATTR Value R=100*(1+3.9083E-3*Temp-5.775E-7*pow(Temp,2))
SYMATTR InstName PT-100
SYMBOL res 1088 544 R90
WINDOW 0 0 56 VBottom 2
WINDOW 3 32 56 VTop 2
SYMATTR InstName Rw3
SYMATTR Value 10m
SYMBOL res 1088 192 R90
WINDOW 0 0 56 VBottom 2
WINDOW 3 32 56 VTop 2
SYMATTR InstName Rw1
SYMATTR Value 10m
SYMBOL res 1088 336 R90
WINDOW 0 0 56 VBottom 2
WINDOW 3 32 56 VTop 2
SYMATTR InstName Rw2
SYMATTR Value 10m
SYMBOL res 1312 192 R90
WINDOW 0 0 56 VBottom 2
WINDOW 3 32 56 VTop 2
SYMATTR InstName R6
SYMATTR Value 100k
SYMBOL res 1456 192 R90
WINDOW 0 0 56 VBottom 2
WINDOW 3 32 56 VTop 2
SYMATTR InstName R7
SYMATTR Value 100k
SYMBOL OpAmps\\UniversalOpAmp -16 320 R0
SYMATTR InstName U2
SYMBOL res 1312 336 R90
WINDOW 0 0 56 VBottom 2
WINDOW 3 32 56 VTop 2
SYMATTR InstName R8
SYMATTR Value 50k
SYMBOL OpAmps\\UniversalOpAmp 2608 304 M180
SYMATTR InstName U3
SYMBOL res 2048 272 R90
WINDOW 0 0 56 VBottom 2
WINDOW 3 32 56 VTop 2
SYMATTR InstName R9
SYMATTR Value 10k
SYMBOL res 2288 272 R90
WINDOW 0 0 56 VBottom 2
WINDOW 3 32 56 VTop 2
SYMATTR InstName R10
SYMATTR Value 10k
SYMBOL cap 2336 400 R0
SYMATTR InstName C2
SYMATTR Value 2.38µ
SYMBOL res 2656 448 R90
WINDOW 0 0 56 VBottom 2
WINDOW 3 32 56 VTop 2
SYMATTR InstName R12
SYMATTR Value 9k
SYMBOL res 2528 624 R180
WINDOW 0 36 76 Left 2
WINDOW 3 36 40 Left 2
SYMATTR InstName R13
SYMATTR Value 1k
SYMBOL voltage 1872 368 R0
WINDOW 123 24 180 Left 2
WINDOW 39 0 0 Left 0
WINDOW 3 24 152 Left 2
SYMATTR Value2 AC 1
SYMATTR Value SINE(200m 500m 5k)
SYMATTR InstName V2
SYMBOL cap 2448 96 R90
WINDOW 0 0 32 VBottom 2
WINDOW 3 32 32 VTop 2
SYMATTR InstName C1
SYMATTR Value 353.67n
SYMBOL OpAmps\\UniversalOpAmp 192 624 R0
SYMATTR InstName U6
TEXT 1448 880 Left 2 !;.dc Temp 0 150 1
TEXT 488 880 Left 2 !.tran 150m
TEXT 984 -8 Center 5 ;RTD\nPT-100
TEXT 2712 872 Left 2 !;.ac dec 1000 0.1 50k
TEXT 2424 -104 Center 3 ;Filtro Bessel - Thomson\nfc = 10 Hz \nk = 10 (20 dB)
TEXT 96 -232 Center 4 ;Referencia y fuente de\ncorriente constante
TEXT 1200 -200 Center 4 ;Sensado y correción\npor resistencia Rl
TEXT 2384 -248 Center 4 ;Filtro y amplificador
